easyblock = 'Tarball'

name = 'FDS'
version = '6.0.1'
versionsuffix = '-no-OFED'

homepage = 'https://code.google.com/p/fds-smv/'
description = """
 Fire Dynamics Simulator (FDS) is a large-eddy simulation (LES) code for low-speed flows, with an emphasis on smoke and
 heat transport from fires.
"""
toolchain = {'name': 'dummy', 'version': ''}

# download .sh from https://bintray.com/nist-fire-research/releases/FDS-SMV/6.0.1/view/files to create tarball
sources = ['FDS_6.0.1-SMV_6.1.5_linux64.tar.gz']

dependencies = [('OpenMPI', '1.6.5-GCC-4.8.2-no-OFED')]

skipsteps = ['configure', 'build']

sanity_check_paths = {
    'files': ['bin/fds', 'bin/fds_mpi'],
    'dirs': [],
}

moduleclass = 'phys'
