easyblock = "CmdCp"

name = 'Oasys-LS-Dyna'
version = '14.1'

homepage = "http://www.oasys-software.com/dyna/en/"
description = """The Oasys Suite of software, exclusively written for LS-DYNA, is at the leading edge of the pre- and post-processing 
markets and is used worldwide by many of the largest LS-DYNA customers."""

toolchain = {'name': 'dummy', 'version': 'dummy' }
postinstallcmds = [
        '/cvmfs/soft.computecanada.ca/easybuild/bin/setrpaths.sh --path %(installdir)s --any_interpreter'
]

sources = [ 'install_14_64.tar.gz' ]
moduleclass = 'phys'
