easyblock = "Tarball"

name = 'LS-PrePost'
version = '4.6.24'

homepage = 'https://lstc.com/products/ls-prepost'
description = """LS-PrePost is an advanced pre and post-processor that is delivered free with LS-DYNA."""

toolchain = SYSTEM

source_urls = ['https://ftp.lstc.com/anonymous/outgoing/lsprepost/%(version_major_minor)s/linux64/']
sources = ['lsprepost-%(version)s-common-10May2020.tgz']
checksums = ['93f09a96f29578f77be3f18f4d6f935daadca12ca2a4c32d9aeaca8ecb52732f']

postinstallcmds = [
    "sed -e 's,^DN=.*,DN=%(installdir)s,' -i %(installdir)s/lspp46",
    "sed -e 's,^DN=.*,DN=%(installdir)s,' -i %(installdir)s/lspp46_mesa",
    "cd %(installdir)s && chmod a+x lspp46 lspp46_mesa lsprepost lsrun msuite_ls_64 tetgen",
]

modextrapaths = {'PATH': '.', 'LD_LIBRARY_PATH': 'lib', 'LSPP_HELPDIR': 'resource/HelpDocument'}

sanity_check_paths = {
    'files': ['lsprepost'],
    'dirs': ['lib']
}

moduleclass = 'cae'
