easyblock = "Tarball"

name = 'LS-PrePost'
version = '4.6'
versionsuffix = '-centos6'

homepage = 'http://lstc.com/products/ls-prepost'
description = """LS-PrePost is an advanced pre and post-processor that is delivered free with LS-DYNA."""

toolchain = SYSTEM

source_urls = ['http://ftp.lstc.com/anonymous/outgoing/lsprepost/%(version)s/linux64/']
sources = ['lsprepost-%(version)s_mesa%(versionsuffix)s-03Jun2019.tgz']
checksums = ['fc9f55696deac906538857e22c031d97cb4e99d0e90460ac69f8de73e9d312f6']

modextrapaths = {'PATH': '.', 'LD_LIBRARY_PATH': 'lib'}

sanity_check_paths = {
    'files': ['lsprepost'],
    'dirs': ['lib']
}

moduleclass = 'cae'
