easyblock = "Tarball"

name = 'LS-PrePost'
version = '4.7'

homepage = 'http://lstc.com/products/ls-prepost'
description = """LS-PrePost is an advanced pre and post-processor that is delivered free with LS-DYNA."""

toolchain = SYSTEM

source_urls = ['http://ftp.lstc.com/anonymous/outgoing/lsprepost/%(version)s/linux64/']
sources = ['lsprepost-%(version)s.8-common-09Mar2020.tgz']


modextrapaths = {'PATH': '.', 'LD_LIBRARY_PATH': 'lib'}

sanity_check_paths = {
    'files': ['lsprepost'],
        'dirs': ['lib']
        }

moduleclass = 'cae'
