easyblock = "Tarball"

name = 'LS-PrePost'
version = '4.7.15'

homepage = 'https://lstc.com/products/ls-prepost'
description = """LS-PrePost is an advanced pre and post-processor that is delivered free with LS-DYNA."""

toolchain = SYSTEM

source_urls = ['https://ftp.lstc.com/anonymous/outgoing/lsprepost/%(version_major_minor)s/linux64/']
sources = ['lsprepost-%(version)s-common-02Jul2020.tgz']
checksums = ['9eec99b6618558c62247047f60b6fd4e631216b5522e94aae54bec9f40d12076']

postinstallcmds = [
    "sed -e 's,^DN=.*,DN=%(installdir)s,' -i %(installdir)s/lspp47",
    "sed -e 's,^DN=.*,DN=%(installdir)s,' -i %(installdir)s/lspp47_mesa",
    "cd %(installdir)s && chmod a+x lspp47 lspp47_mesa lsprepost lsrun msuite_ls_64 tetgen",
]

modextrapaths = {'PATH': '.', 'LD_LIBRARY_PATH': 'lib', 'LSPP_HELPDIR': 'resource/HelpDocument'}

sanity_check_paths = {
    'files': ['lsprepost'],
    'dirs': ['lib']
}

moduleclass = 'cae'
