# This file is an EasyBuild reciPY as per https://github.com/easybuilders/easybuild
# Author: Maxime Boissonneault
# Email: maxime.boissonneault@calculquebec.calculquebec

easyblock = "Tarball"

name = 'LS-OPT'
version = '5.2.1'

homepage = 'http://www.lstc.com/products/ls-opt'
description = """LS-OPT is a standalone Design Optimization and Probabilistic Analysis package with an interface to LS-DYNA."""

toolchain = SYSTEM

# You need to get the software manually from ftp.lstc.com
sources = [
	'lsopt_5_2_1_x64_rhel7.tar.gz',
]

postinstallcmds = [
	'/cvmfs/soft.computecanada.ca/easybuild/bin/setrpaths.sh --path %(installdir)s '
]
modextrapaths = {'PATH': ''}

sanity_check_paths = {
    'files': ["lsopt"],
    'dirs': []
}

#modluafooter = """
#require("SitePackage")
#local found = find_and_define_license_file("LSTC_FILE","ls-opt")
#if (not found) then
#        local error_message = [[
#	We did not find a suitable license for LS-OPT. If you have access to one, you can create the file $HOME/.licenses/ls-opt.lic with the license information. If you think you should have access to one as    part of your institution, please write to support@computecanada.ca so that we can configure it.
#
#	Nous n'avons pas trouve de licence utilisable pour LS-OPT. Si vous avez acces a une licence de LS-OPT, vous pouvez creer le fichier $HOME/.licenses/ls-opt.lic avec l'information de la licence. Si vous    pensez que vous devriez automatiquement avoir acces a une licence via votre institution, veuillez ecrire a support@calculcanada.ca pour que nous puissions la configurer.
#	]]
#	LmodError(error_message)
#end
#"""


