# This file is an EasyBuild reciPY as per https://github.com/hpcugent/easybuild
# Author: Maxime Boissonneault
# Email: maxime.boissonneault@calculquebec.calculquebec

easyblock = "Tarball"

name = 'LS-OPT'
version = "7.0.0"

homepage = 'http://www.lstc.com/products/ls-opt'
description = """LS-OPT is a standalone Design Optimization and Probabilistic Analysis package with an interface to LS-DYNA."""

toolchain = SYSTEM

# You need to get the software manually from ftp.lstc.com:

sources = [
    'lsopt_7_0_0_x64_rhel7.tar.gz',
]
checksums = ['ffe85d91a749ccaeecfba7784cee2ad2312c161920e2d0346fee99993f254541']

postinstallcmds = [
    '/cvmfs/soft.computecanada.ca/easybuild/bin/setrpaths.sh --path %(installdir)s '
]

modextrapaths = {'PATH': ''}

sanity_check_paths = {
    'files': ["lsopt"],
    'dirs': []
}

moduleclass = 'phys'
