# This file is an EasyBuild reciPY as per https://github.com/easybuilders/easybuild
# Author: Doug Roberts
# Email: doug@sharcnet.ca

easyblock = "Tarball"

name = 'LS-DYNA'
version = '10.1'
versionsuffix = '-mpi'
modaltsoftname = 'ls-dyna-mpi'

homepage = 'http://www.lstc.com/products/ls-dyna'
description = """LS-DYNA is a general-purpose finite element program capable of simulating complex real world problems. 
It is used by the automobile, aerospace, construction, military, manufacturing, and bioengineering industries. 
LS-DYNA is optimized for shared and distributed memory Unix, Linux, and Windows based, platforms, and it is fully 
QA'd by LSTC. The code's origins lie in highly nonlinear, transient dynamic finite element analysis using explicit 
time integration.
"""

toolchain = {'name': 'iompi', 'version': '2016.3.1107'}

# You need to get the software manually from ftp.lstc.com
sources = [
	'ls-dyna_mpp_d_r10_1_123355_x64_redhat54_ifort160_sse2_openmpi1.10.7.tar.gz',
	'ls-dyna_mpp_s_r10_1_123355_x64_redhat54_ifort160_sse2_openmpi1.10.7.tar.gz'
]

postinstallcmds = [
	'ln -s ls-dyna_mpp_d_r10_1_123355_x64_redhat54_ifort160_sse2_openmpi1.10.7 %(installdir)s/ls-dyna_d',
	'ln -s ls-dyna_mpp_s_r10_1_123355_x64_redhat54_ifort160_sse2_openmpi1.10.7 %(installdir)s/ls-dyna_s',
	'/cvmfs/soft.computecanada.ca/easybuild/bin/setrpaths.sh --path %(installdir)s --add_path $EBROOTOPENMPI/lib'
]
modextrapaths = {'PATH': ''}

sanity_check_paths = {
    'files': ["ls-dyna_d", "ls-dyna_s", "ls-dyna_mpp_d_r10_1_123355_x64_redhat54_ifort160_sse2_openmpi1.10.7", "ls-dyna_mpp_s_r10_1_123355_x64_redhat54_ifort160_sse2_openmpi1.10.7" ],
    'dirs': []
}

modluafooter = """
require("SitePackage")
local found = find_and_define_license_file("LSTC_FILE","ls-dyna")
if (not found) then
        local error_message = [[
	We did not find a suitable license for LS-DYNA. If you have access to one, you can create the file $HOME/.licenses/ls-dyna.lic with the license information. If you think you should have access to one as    part of your institution, please write to support@computecanada.ca so that we can configure it.

	Nous n'avons pas trouve de licence utilisable pour LS-DYNA. Si vous avez acces a une licence de LS-DYNA, vous pouvez creer le fichier $HOME/.licenses/ls-dyna.lic avec l'information de la licence. Si vous    pensez que vous devriez automatiquement avoir acces a une licence via votre institution, veuillez ecrire a support@calculcanada.ca pour que nous puissions la configurer.
	]]
	LmodError(error_message)
end
"""


