# This easyconfig was created by the BEAR Software team at the University of Birmingham.
easyblock = 'PythonBundle'

name = 'GCPy'
version = '1.0.3'

homepage = "https://gcpy.readthedocs.io"
description = """GCPy is a Python-based toolkit containing useful functions for working specifically
 with the GEOS-Chem model of atmospheric chemistry and composition."""

toolchain = {'name': 'foss', 'version': '2020b'}

dependencies = [
    ('Python', '3.8.6'),
    ('SciPy-bundle', '2020.11'),
    ('matplotlib', '3.3.3'),
    ('Cartopy', '0.18.0'),
    ('xarray', '0.16.2'),
    ('xESMF', '0.3.0'),
    ('ESMPy', '8.0.1'),
    ('dask', '2021.4.0'),
    ('PyYAML', '5.3.1'),
]

sanity_pip_check = True
use_pip = True

exts_default_options = {
    'source_urls': [PYPI_SOURCE],
}

exts_list = [
    ('Unidecode', '1.2.0', {
        'checksums': ['8d73a97d387a956922344f6b74243c2c6771594659778744b2dbdaad8f6b727d'],
    }),
    ('lazy-object-proxy', '1.6.0', {
        'checksums': ['489000d368377571c6f982fba6497f2aa13c6d1facc40660963da62f5c379726'],
    }),
    ('typed_ast', '1.4.2', {
        'checksums': ['9fc0b3cb5d1720e7141d103cf4819aea239f7d136acf9ee4a69b047b7986175a'],
    }),
    ('wrapt', '1.12.1', {
        'checksums': ['b62ffa81fb85f4332a4f609cab4ac40709470da05643a082ec1eb88e6d9b97d7'],
    }),
    ('astroid', '2.5.2', {
        'checksums': ['6b0ed1af831570e500e2437625979eaa3b36011f66ddfc4ce930128610258ca9'],
    }),
    ('sphinx-autoapi', '1.5.1', {
        'modulename': 'autoapi',
        'checksums': ['4d50878323b80b66abdc4046c1632636473414653bac450b58832b8ee9f6a9a6'],
    }),
    ('sphinx_rtd_theme', '0.4.3', {
        'checksums': ['728607e34d60456d736cc7991fd236afb828b21b82f956c5ea75f94c8414040a'],
    }),
    ('PyPDF2', '1.26.0', {
        'modulename': 'PyPDF2',
        'checksums': ['e28f902f2f0a1603ea95ebe21dff311ef09be3d0f0ef29a3e44a932729564385'],
    }),
    ('Cython', '0.29.21', {
        'checksums': ['e57acb89bd55943c8d8bf813763d20b9099cc7165c0f16b707631a7654be9cad'],
    }),
    ('joblib', '0.17.0', {
        'checksums': ['9e284edd6be6b71883a63c9b7f124738a3c16195513ad940eae7e3438de885d5'],
    }),
    ('xbpch', '0.3.5', {
        'source_tmpl': 'v%(version)s.tar.gz',
        'source_urls': ['https://github.com/darothen/xbpch/archive'],
        'checksums': ['f4b979849adb972bb054b4d42e161692a8d2ce0be362da6e11e1bfecb5244889'],
    }),
    (name, version, {
        'source_tmpl': '%(version)s.tar.gz',
        'source_urls': ['https://github.com/geoschem/gcpy/archive'],
        'checksums': ['c18be8c0df4815c6eef90eb090231658f08706285d7574bd70a18007b0cbdbb7'],
    }),
]

moduleclass = 'chem'
